446495
  -OEChem-09272621523D

 87 90  0     1  0  0  0  0  0999 V2000
    0.1510    1.6500    0.4494 O   0  0  0  0  0  0  0  0  0  0  0  0
   -1.8918    2.6507   -0.2186 O   0  0  0  0  0  0  0  0  0  0  0  0
    2.7335    0.5600   -0.5670 O   0  0  0  0  0  0  0  0  0  0  0  0
   -3.8968   -0.4075    0.2461 O   0  0  0  0  0  0  0  0  0  0  0  0
    4.4964    0.0490    0.8881 O   0  0  0  0  0  0  0  0  0  0  0  0
   -6.2491   -0.1196    0.3127 O   0  0  0  0  0  0  0  0  0  0  0  0
    2.9031    4.0167    0.4327 O   0  0  0  0  0  0  0  0  0  0  0  0
    5.5324   -2.9531   -0.9836 O   0  0  0  0  0  0  0  0  0  0  0  0
   -3.2720    0.3750    2.9386 O   0  0  0  0  0  0  0  0  0  0  0  0
   -0.7008    1.6904    3.1230 O   0  0  0  0  0  0  0  0  0  0  0  0
    2.2769    0.9454    2.2694 O   0  0  0  0  0  0  0  0  0  0  0  0
    7.0302    0.8193   -0.2250 O   0  0  0  0  0  0  0  0  0  0  0  0
   -4.1315   -2.7108    1.8320 O   0  0  0  0  0  0  0  0  0  0  0  0
   -6.0871   -4.2455    0.3502 O   0  0  0  0  0  0  0  0  0  0  0  0
   -6.9618   -2.8818   -2.0220 O   0  0  0  0  0  0  0  0  0  0  0  0
    8.8374   -1.4266   -0.4801 O   0  0  0  0  0  0  0  0  0  0  0  0
    1.7607    3.1376   -2.9715 O   0  0  0  0  0  0  0  0  0  0  0  0
   -2.6806    2.3245   -2.8117 O   0  0  0  0  0  0  0  0  0  0  0  0
    7.2728   -3.5310    0.5191 O   0  0  0  0  0  0  0  0  0  0  0  0
    2.9977   -3.7560   -0.3645 O   0  0  0  0  0  0  0  0  0  0  0  0
   -7.4072    1.3575   -1.6696 O   0  0  0  0  0  0  0  0  0  0  0  0
    1.1788    2.4247   -0.1761 C   0  0  1  0  0  0  0  0  0  0  0  0
   -3.3476    0.8622    0.5905 C   0  0  1  0  0  0  0  0  0  0  0  0
    2.1020    2.9499    0.9310 C   0  0  1  0  0  0  0  0  0  0  0  0
   -2.4449    0.6726    1.8111 C   0  0  1  0  0  0  0  0  0  0  0  0
   -0.9503    2.4677    0.8408 C   0  0  1  0  0  0  0  0  0  0  0  0
   -1.6521    1.9467    2.0959 C   0  0  2  0  0  0  0  0  0  0  0  0
    1.8975    1.5343   -1.2045 C   0  0  1  0  0  0  0  0  0  0  0  0
    3.0291    1.8566    1.4669 C   0  0  2  0  0  0  0  0  0  0  0  0
   -2.5640    1.4431   -0.5943 C   0  0  1  0  0  0  0  0  0  0  0  0
    3.7078    1.0960    0.3258 C   0  0  2  0  0  0  0  0  0  0  0  0
    5.1710   -0.6938   -0.1248 C   0  0  1  0  0  0  0  0  0  0  0  0
   -5.1011   -0.6651    0.9659 C   0  0  1  0  0  0  0  0  0  0  0  0
    6.6769   -0.5294    0.0907 C   0  0  1  0  0  0  0  0  0  0  0  0
    4.7601   -2.1713   -0.0652 C   0  0  1  0  0  0  0  0  0  0  0  0
   -5.3064   -2.1531    1.2540 C   0  0  1  0  0  0  0  0  0  0  0  0
   -5.6647   -2.9287   -0.0121 C   0  0  2  0  0  0  0  0  0  0  0  0
   -6.8133   -2.2439   -0.7556 C   0  0  1  0  0  0  0  0  0  0  0  0
    2.6719    2.3191   -2.2616 C   0  0  0  0  0  0  0  0  0  0  0  0
    7.4563   -1.4760   -0.8201 C   0  0  2  0  0  0  0  0  0  0  0  0
   -6.5381   -0.7458   -0.9425 C   0  0  1  0  0  0  0  0  0  0  0  0
   -3.4745    1.7874   -1.7699 C   0  0  0  0  0  0  0  0  0  0  0  0
    6.9364   -2.9110   -0.7207 C   0  0  2  0  0  0  0  0  0  0  0  0
    3.2925   -2.3731   -0.4328 C   0  0  0  0  0  0  0  0  0  0  0  0
   -7.7364   -0.0133   -1.5402 C   0  0  0  0  0  0  0  0  0  0  0  0
    0.7179    3.2623   -0.7153 H   0  0  0  0  0  0  0  0  0  0  0  0
   -4.1538    1.5680    0.8404 H   0  0  0  0  0  0  0  0  0  0  0  0
    1.5189    3.3506    1.7671 H   0  0  0  0  0  0  0  0  0  0  0  0
   -1.7785   -0.1880    1.6810 H   0  0  0  0  0  0  0  0  0  0  0  0
   -0.5838    3.4697    1.0965 H   0  0  0  0  0  0  0  0  0  0  0  0
   -2.3424    2.7132    2.4711 H   0  0  0  0  0  0  0  0  0  0  0  0
    1.1254    0.9558   -1.7287 H   0  0  0  0  0  0  0  0  0  0  0  0
    3.8040    2.2858    2.1133 H   0  0  0  0  0  0  0  0  0  0  0  0
   -1.8150    0.7233   -0.9506 H   0  0  0  0  0  0  0  0  0  0  0  0
    4.3808    1.7708   -0.2158 H   0  0  0  0  0  0  0  0  0  0  0  0
    4.9420   -0.3087   -1.1296 H   0  0  0  0  0  0  0  0  0  0  0  0
   -5.0977   -0.1763    1.9384 H   0  0  0  0  0  0  0  0  0  0  0  0
    6.9460   -0.6813    1.1424 H   0  0  0  0  0  0  0  0  0  0  0  0
    4.9101   -2.5721    0.9461 H   0  0  0  0  0  0  0  0  0  0  0  0
   -6.1200   -2.2759    1.9807 H   0  0  0  0  0  0  0  0  0  0  0  0
   -4.7877   -3.0530   -0.6578 H   0  0  0  0  0  0  0  0  0  0  0  0
   -7.7495   -2.3920   -0.2038 H   0  0  0  0  0  0  0  0  0  0  0  0
    3.1563    1.6306   -2.9625 H   0  0  0  0  0  0  0  0  0  0  0  0
    3.4532    2.9516   -1.8337 H   0  0  0  0  0  0  0  0  0  0  0  0
    7.3606   -1.1252   -1.8557 H   0  0  0  0  0  0  0  0  0  0  0  0
   -5.6848   -0.5944   -1.6145 H   0  0  0  0  0  0  0  0  0  0  0  0
   -3.9903    0.9011   -2.1475 H   0  0  0  0  0  0  0  0  0  0  0  0
   -4.2124    2.5447   -1.4853 H   0  0  0  0  0  0  0  0  0  0  0  0
    7.4289   -3.5034   -1.5008 H   0  0  0  0  0  0  0  0  0  0  0  0
    2.3017    4.7155    0.1235 H   0  0  0  0  0  0  0  0  0  0  0  0
   -3.7930    1.1685    3.1504 H   0  0  0  0  0  0  0  0  0  0  0  0
   -0.2320    2.5233    3.3014 H   0  0  0  0  0  0  0  0  0  0  0  0
    2.6303   -1.8521    0.2639 H   0  0  0  0  0  0  0  0  0  0  0  0
    3.0934   -2.0405   -1.4566 H   0  0  0  0  0  0  0  0  0  0  0  0
    1.8884    1.4522    3.0025 H   0  0  0  0  0  0  0  0  0  0  0  0
   -7.9959   -0.4100   -2.5263 H   0  0  0  0  0  0  0  0  0  0  0  0
   -8.6069   -0.0866   -0.8797 H   0  0  0  0  0  0  0  0  0  0  0  0
    6.8083    0.9812   -1.1577 H   0  0  0  0  0  0  0  0  0  0  0  0
   -3.9190   -2.1889    2.6246 H   0  0  0  0  0  0  0  0  0  0  0  0
   -6.8601   -4.1660    0.9346 H   0  0  0  0  0  0  0  0  0  0  0  0
   -6.1498   -2.7256   -2.5338 H   0  0  0  0  0  0  0  0  0  0  0  0
    9.3071   -2.0369   -1.0738 H   0  0  0  0  0  0  0  0  0  0  0  0
    2.2706    3.6146   -3.6482 H   0  0  0  0  0  0  0  0  0  0  0  0
   -3.2790    2.5382   -3.5477 H   0  0  0  0  0  0  0  0  0  0  0  0
    7.3279   -4.4879    0.3563 H   0  0  0  0  0  0  0  0  0  0  0  0
    2.0611   -3.8623   -0.6036 H   0  0  0  0  0  0  0  0  0  0  0  0
   -8.1829    1.8045   -2.0489 H   0  0  0  0  0  0  0  0  0  0  0  0
  1 22  1  0  0  0  0
  1 26  1  0  0  0  0
  2 26  1  0  0  0  0
  2 30  1  0  0  0  0
  3 28  1  0  0  0  0
  3 31  1  0  0  0  0
  4 23  1  0  0  0  0
  4 33  1  0  0  0  0
  5 31  1  0  0  0  0
  5 32  1  0  0  0  0
  6 33  1  0  0  0  0
  6 41  1  0  0  0  0
  7 24  1  0  0  0  0
  7 70  1  0  0  0  0
  8 35  1  0  0  0  0
  8 43  1  0  0  0  0
  9 25  1  0  0  0  0
  9 71  1  0  0  0  0
 10 27  1  0  0  0  0
 10 72  1  0  0  0  0
 11 29  1  0  0  0  0
 11 75  1  0  0  0  0
 12 34  1  0  0  0  0
 12 78  1  0  0  0  0
 13 36  1  0  0  0  0
 13 79  1  0  0  0  0
 14 37  1  0  0  0  0
 14 80  1  0  0  0  0
 15 38  1  0  0  0  0
 15 81  1  0  0  0  0
 16 40  1  0  0  0  0
 16 82  1  0  0  0  0
 17 39  1  0  0  0  0
 17 83  1  0  0  0  0
 18 42  1  0  0  0  0
 18 84  1  0  0  0  0
 19 43  1  0  0  0  0
 19 85  1  0  0  0  0
 20 44  1  0  0  0  0
 20 86  1  0  0  0  0
 21 45  1  0  0  0  0
 21 87  1  0  0  0  0
 22 24  1  0  0  0  0
 22 28  1  0  0  0  0
 22 46  1  0  0  0  0
 23 25  1  0  0  0  0
 23 30  1  0  0  0  0
 23 47  1  0  0  0  0
 24 29  1  0  0  0  0
 24 48  1  0  0  0  0
 25 27  1  0  0  0  0
 25 49  1  0  0  0  0
 26 27  1  0  0  0  0
 26 50  1  0  0  0  0
 27 51  1  0  0  0  0
 28 39  1  0  0  0  0
 28 52  1  0  0  0  0
 29 31  1  0  0  0  0
 29 53  1  0  0  0  0
 30 42  1  0  0  0  0
 30 54  1  0  0  0  0
 31 55  1  0  0  0  0
 32 34  1  0  0  0  0
 32 35  1  0  0  0  0
 32 56  1  0  0  0  0
 33 36  1  0  0  0  0
 33 57  1  0  0  0  0
 34 40  1  0  0  0  0
 34 58  1  0  0  0  0
 35 44  1  0  0  0  0
 35 59  1  0  0  0  0
 36 37  1  0  0  0  0
 36 60  1  0  0  0  0
 37 38  1  0  0  0  0
 37 61  1  0  0  0  0
 38 41  1  0  0  0  0
 38 62  1  0  0  0  0
 39 63  1  0  0  0  0
 39 64  1  0  0  0  0
 40 43  1  0  0  0  0
 40 65  1  0  0  0  0
 41 45  1  0  0  0  0
 41 66  1  0  0  0  0
 42 67  1  0  0  0  0
 42 68  1  0  0  0  0
 43 69  1  0  0  0  0
 44 73  1  0  0  0  0
 44 74  1  0  0  0  0
 45 76  1  0  0  0  0
 45 77  1  0  0  0  0
M  END
> <PUBCHEM_COMPOUND_CID>
446495

> <PUBCHEM_CONFORMER_RMSD>
1.4

> <PUBCHEM_CONFORMER_DIVERSEORDER>
1
22
21
31
6
12
14
8
23
13
29
18
20
28
27
7
26
3
9
10
17
16
5
24
2
25
4
19
30
11
15
32

> <PUBCHEM_MMFF94_PARTIAL_CHARGES>
59
1 -0.56
10 -0.68
11 -0.68
12 -0.68
13 -0.68
14 -0.68
15 -0.68
16 -0.68
17 -0.68
18 -0.68
19 -0.68
2 -0.56
20 -0.68
21 -0.68
22 0.28
23 0.28
24 0.28
25 0.28
26 0.56
27 0.28
28 0.28
29 0.28
3 -0.56
30 0.28
31 0.56
32 0.28
33 0.56
34 0.28
35 0.28
36 0.28
37 0.28
38 0.28
39 0.28
4 -0.56
40 0.28
41 0.28
42 0.28
43 0.56
44 0.28
45 0.28
5 -0.56
6 -0.56
7 -0.68
70 0.4
71 0.4
72 0.4
75 0.4
78 0.4
79 0.4
8 -0.56
80 0.4
81 0.4
82 0.4
83 0.4
84 0.4
85 0.4
86 0.4
87 0.4
9 -0.68

> <PUBCHEM_EFFECTIVE_ROTOR_COUNT>
14.8

> <PUBCHEM_PHARMACOPHORE_FEATURES>
39
1 1 acceptor
1 10 acceptor
1 10 donor
1 11 acceptor
1 11 donor
1 12 acceptor
1 12 donor
1 13 acceptor
1 13 donor
1 14 acceptor
1 14 donor
1 15 acceptor
1 15 donor
1 16 acceptor
1 16 donor
1 17 acceptor
1 17 donor
1 18 acceptor
1 18 donor
1 19 acceptor
1 19 donor
1 2 acceptor
1 20 acceptor
1 20 donor
1 21 acceptor
1 21 donor
1 3 acceptor
1 4 acceptor
1 5 acceptor
1 6 acceptor
1 7 acceptor
1 7 donor
1 8 acceptor
1 9 acceptor
1 9 donor
6 2 23 25 26 27 30 rings
6 3 22 24 28 29 31 rings
6 6 33 36 37 38 41 rings
6 8 32 34 35 40 43 rings

> <PUBCHEM_HEAVY_ATOM_COUNT>
45

> <PUBCHEM_ATOM_DEF_STEREO_COUNT>
20

> <PUBCHEM_ATOM_UDEF_STEREO_COUNT>
0

> <PUBCHEM_BOND_DEF_STEREO_COUNT>
0

> <PUBCHEM_BOND_UDEF_STEREO_COUNT>
0

> <PUBCHEM_ISOTOPIC_ATOM_COUNT>
0

> <PUBCHEM_COMPONENT_COUNT>
1

> <PUBCHEM_CACTVS_TAUTO_COUNT>
1

> <PUBCHEM_CONFORMER_ID>
0006D01F00000001

> <PUBCHEM_MMFF94_ENERGY>
143.311

> <PUBCHEM_FEATURE_SELFOVERLAP>
198.247

> <PUBCHEM_SHAPE_FINGERPRINT>
117089 54 18340772628014001915
12013929 112 17969204691521565653
12522641 126 18189626097944718316
12559416 138 17845084070372769598
12758862 65 16415480493020549162
13560911 23 16917358013047156977
13782708 43 18409731798274002373
13811026 1 18411133670993050770
14068700 675 18272936003274958136
14143925 63 18269567056809459006
14904525 67 7997432524095577047
15183329 4 16443610407685906421
15361156 5 17821740437581670845
15510800 12 18341040861490169906
16096371 109 17272271724745659944
19315092 285 17846226591285654360
19438510 23 10375871870257687556
19841028 212 18273209815660890355
21987483 16 16484702532923202679
2838139 119 8286202725626523569
437795 70 17603300428179251389
474113 269 17561073705974043629
5718773 13 18342738520228007498
57724786 102 8502109421531561633

> <PUBCHEM_SHAPE_MULTIPOLES>
802.82
23.1
4.91
2.32
2.98
2.28
-0.1
24.55
7.15
1.57
0.62
-2.38
-1.71
0.97

> <PUBCHEM_SHAPE_SELFOVERLAP>
1666.166

> <PUBCHEM_SHAPE_VOLUME>
446.8

> <PUBCHEM_COORDINATE_TYPE>
2
5
10

$$$$
