barley beta-glucan heptasaccharide, Glc b1-4 Glc b1-4 Glc b1-3 Glc b1-4 Glc b1-4 Glc b1-4 Glc
  built by build_beta_glucan.py from PubChem CID 10712 and CID 5287770 3-D conformers

150156  0     0  0  0  0  0  0999 V2000
   23.0566   -3.5293    9.7083 C   0  0  0  0  0  0  0  0  0  0  0  0
   22.8744   -4.5208    9.2721 H   0  0  0  0  0  0  0  0  0  0  0  0
   24.5412   -3.1752    9.6248 C   0  0  0  0  0  0  0  0  0  0  0  0
   24.7021   -2.1206    9.8782 H   0  0  0  0  0  0  0  0  0  0  0  0
   25.3791   -4.0727   10.5355 C   0  0  0  0  0  0  0  0  0  0  0  0
   25.4868   -5.0729   10.0981 H   0  0  0  0  0  0  0  0  0  0  0  0
   24.7796   -4.1502   11.9397 C   0  0  0  0  0  0  0  0  0  0  0  0
   24.9468   -3.1992   12.4602 H   0  0  0  0  0  0  0  0  0  0  0  0
   23.2848   -4.4724   11.8750 C   0  0  0  0  0  0  0  0  0  0  0  0
   23.1141   -5.4687   11.4446 H   0  0  0  0  0  0  0  0  0  0  0  0
   22.6397   -4.4396   13.2570 C   0  0  0  0  0  0  0  0  0  0  0  0
   22.7237   -3.4483   13.7143 H   0  0  0  0  0  0  0  0  0  0  0  0
   23.0846   -5.1779   13.9302 H   0  0  0  0  0  0  0  0  0  0  0  0
   24.9658   -3.3439    8.2724 O   0  0  0  0  0  0  0  0  0  0  0  0
   24.8264   -4.2743    8.0265 H   0  0  0  0  0  0  0  0  0  0  0  0
   26.6987   -3.5374   10.6474 O   0  0  0  0  0  0  0  0  0  0  0  0
   27.2003   -4.1216   11.2416 H   0  0  0  0  0  0  0  0  0  0  0  0
   25.4487   -5.1659   12.6825 O   0  0  0  0  0  0  0  0  0  0  0  0
   25.2998   -6.0148   12.2320 H   0  0  0  0  0  0  0  0  0  0  0  0
   22.6130   -3.5078   11.0631 O   0  0  0  0  0  0  0  0  0  0  0  0
   21.2618   -4.7350   13.1185 O   0  0  0  0  0  0  0  0  0  0  0  0
   20.8827   -4.0913   12.4969 H   0  0  0  0  0  0  0  0  0  0  0  0
   18.3122   -2.0804    8.0191 C   0  0  0  0  0  0  0  0  0  0  0  0
   18.5390   -1.2308    7.3609 H   0  0  0  0  0  0  0  0  0  0  0  0
   18.6956   -1.7535    9.4622 C   0  0  0  0  0  0  0  0  0  0  0  0
   18.2997   -2.5113   10.1487 H   0  0  0  0  0  0  0  0  0  0  0  0
   20.2114   -1.6345    9.6216 C   0  0  0  0  0  0  0  0  0  0  0  0
   20.5700   -0.6864    9.2022 H   0  0  0  0  0  0  0  0  0  0  0  0
   20.9300   -2.8231    8.9829 C   0  0  0  0  0  0  0  0  0  0  0  0
   20.7772   -3.7163    9.6010 H   0  0  0  0  0  0  0  0  0  0  0  0
   20.4241   -3.0619    7.5582 C   0  0  0  0  0  0  0  0  0  0  0  0
   20.6628   -2.2101    6.9067 H   0  0  0  0  0  0  0  0  0  0  0  0
   21.0415   -4.3135    6.9421 C   0  0  0  0  0  0  0  0  0  0  0  0
   20.7857   -5.2100    7.5164 H   0  0  0  0  0  0  0  0  0  0  0  0
   22.1304   -4.2370    6.8731 H   0  0  0  0  0  0  0  0  0  0  0  0
   18.0830   -0.5143    9.8179 O   0  0  0  0  0  0  0  0  0  0  0  0
   18.4185    0.1717    9.2159 H   0  0  0  0  0  0  0  0  0  0  0  0
   20.5433   -1.6121   11.0107 O   0  0  0  0  0  0  0  0  0  0  0  0
   21.5116   -1.5497   11.0776 H   0  0  0  0  0  0  0  0  0  0  0  0
   19.0068   -3.2409    7.5679 O   0  0  0  0  0  0  0  0  0  0  0  0
   20.5217   -4.4760    5.6351 O   0  0  0  0  0  0  0  0  0  0  0  0
   19.5531   -4.5141    5.7050 H   0  0  0  0  0  0  0  0  0  0  0  0
   22.3309   -2.5636    8.9480 O   0  0  0  0  0  0  0  0  0  0  0  0
   14.2288   -3.1912    4.9281 C   0  0  0  0  0  0  0  0  0  0  0  0
   13.3752   -3.1324    5.6175 H   0  0  0  0  0  0  0  0  0  0  0  0
   15.1617   -4.3335    5.3301 C   0  0  0  0  0  0  0  0  0  0  0  0
   15.9017   -4.5234    4.5435 H   0  0  0  0  0  0  0  0  0  0  0  0
   15.8623   -4.0386    6.6565 C   0  0  0  0  0  0  0  0  0  0  0  0
   15.1694   -4.1709    7.4965 H   0  0  0  0  0  0  0  0  0  0  0  0
   16.4688   -2.6353    6.6621 C   0  0  0  0  0  0  0  0  0  0  0  0
   17.3517   -2.6173    6.0113 H   0  0  0  0  0  0  0  0  0  0  0  0
   15.4414   -1.5978    6.2035 C   0  0  0  0  0  0  0  0  0  0  0  0
   14.5991   -1.5393    6.9063 H   0  0  0  0  0  0  0  0  0  0  0  0
   16.0564   -0.2065    6.0886 C   0  0  0  0  0  0  0  0  0  0  0  0
   16.8669   -0.1867    5.3525 H   0  0  0  0  0  0  0  0  0  0  0  0
   16.4429    0.1468    7.0488 H   0  0  0  0  0  0  0  0  0  0  0  0
   14.3827   -5.5225    5.4598 O   0  0  0  0  0  0  0  0  0  0  0  0
   13.7193   -5.3741    6.1549 H   0  0  0  0  0  0  0  0  0  0  0  0
   16.9201   -4.9779    6.8548 O   0  0  0  0  0  0  0  0  0  0  0  0
   17.3528   -4.7556    7.6970 H   0  0  0  0  0  0  0  0  0  0  0  0
   14.9327   -1.9515    4.9161 O   0  0  0  0  0  0  0  0  0  0  0  0
   15.0551    0.6943    5.6515 O   0  0  0  0  0  0  0  0  0  0  0  0
   14.7020    0.3581    4.8107 H   0  0  0  0  0  0  0  0  0  0  0  0
   16.9049   -2.3156    7.9807 O   0  0  0  0  0  0  0  0  0  0  0  0
   10.5769   -2.0508    2.1374 C   0  0  0  0  0  0  0  0  0  0  0  0
   10.3286   -1.1893    2.7719 H   0  0  0  0  0  0  0  0  0  0  0  0
   11.4644   -3.0351    2.8989 C   0  0  0  0  0  0  0  0  0  0  0  0
   11.5573   -3.9785    2.3478 H   0  0  0  0  0  0  0  0  0  0  0  0
   12.8471   -2.4420    3.1704 C   0  0  0  0  0  0  0  0  0  0  0  0
   12.7971   -1.7016    3.9783 H   0  0  0  0  0  0  0  0  0  0  0  0
   13.4458   -1.8312    1.9034 C   0  0  0  0  0  0  0  0  0  0  0  0
   13.7511   -2.6339    1.2210 H   0  0  0  0  0  0  0  0  0  0  0  0
   12.4405   -0.8995    1.2222 C   0  0  0  0  0  0  0  0  0  0  0  0
   12.2050   -0.0377    1.8616 H   0  0  0  0  0  0  0  0  0  0  0  0
   12.9719   -0.3693   -0.1058 C   0  0  0  0  0  0  0  0  0  0  0  0
   13.1683   -1.1830   -0.8117 H   0  0  0  0  0  0  0  0  0  0  0  0
   13.8889    0.2119    0.0270 H   0  0  0  0  0  0  0  0  0  0  0  0
   10.8289   -3.3429    4.1394 O   0  0  0  0  0  0  0  0  0  0  0  0
   10.7329   -2.5162    4.6423 H   0  0  0  0  0  0  0  0  0  0  0  0
   14.6164   -1.0930    2.2437 O   0  0  0  0  0  0  0  0  0  0  0  0
   14.3542   -0.3738    2.8434 H   0  0  0  0  0  0  0  0  0  0  0  0
   11.2286   -1.6055    0.9501 O   0  0  0  0  0  0  0  0  0  0  0  0
   11.9892    0.4724   -0.6809 O   0  0  0  0  0  0  0  0  0  0  0  0
   11.1713   -0.0451   -0.7681 H   0  0  0  0  0  0  0  0  0  0  0  0
   13.7266   -3.4729    3.6222 O   0  0  0  0  0  0  0  0  0  0  0  0
    5.8770   -1.5481   -0.1253 C   0  0  0  0  0  0  0  0  0  0  0  0
    5.4081   -2.5215    0.0725 H   0  0  0  0  0  0  0  0  0  0  0  0
    7.0984   -1.7188   -1.0284 C   0  0  0  0  0  0  0  0  0  0  0  0
    7.4549   -0.7452   -1.3850 H   0  0  0  0  0  0  0  0  0  0  0  0
    8.2228   -2.4634   -0.3082 C   0  0  0  0  0  0  0  0  0  0  0  0
    7.9943   -3.5341   -0.2399 H   0  0  0  0  0  0  0  0  0  0  0  0
    8.4821   -1.8689    1.0761 C   0  0  0  0  0  0  0  0  0  0  0  0
    8.9813   -0.8981    0.9681 H   0  0  0  0  0  0  0  0  0  0  0  0
    7.1739   -1.7172    1.8559 C   0  0  0  0  0  0  0  0  0  0  0  0
    6.7174   -2.6964    2.0552 H   0  0  0  0  0  0  0  0  0  0  0  0
    7.3920   -1.0183    3.1942 C   0  0  0  0  0  0  0  0  0  0  0  0
    7.7904   -0.0076    3.0575 H   0  0  0  0  0  0  0  0  0  0  0  0
    8.0716   -1.5814    3.8402 H   0  0  0  0  0  0  0  0  0  0  0  0
    6.7016   -2.4605   -2.1817 O   0  0  0  0  0  0  0  0  0  0  0  0
    6.3771   -3.3280   -1.8854 H   0  0  0  0  0  0  0  0  0  0  0  0
    9.4274   -2.3558   -1.0681 O   0  0  0  0  0  0  0  0  0  0  0  0
   10.1235   -2.8264   -0.5782 H   0  0  0  0  0  0  0  0  0  0  0  0
    6.2474   -0.9304    1.1051 O   0  0  0  0  0  0  0  0  0  0  0  0
    6.1433   -0.9038    3.8518 O   0  0  0  0  0  0  0  0  0  0  0  0
    5.5392   -0.4273    3.2581 H   0  0  0  0  0  0  0  0  0  0  0  0
    9.3646   -2.7237    1.7984 O   0  0  0  0  0  0  0  0  0  0  0  0
    1.1125    0.6229    0.0953 C   0  0  0  0  0  0  0  0  0  0  0  0
    1.0105    1.0834   -0.8967 H   0  0  0  0  0  0  0  0  0  0  0  0
    2.2455    1.2874    0.8771 C   0  0  0  0  0  0  0  0  0  0  0  0
    2.2292    0.9702    1.9266 H   0  0  0  0  0  0  0  0  0  0  0  0
    3.6067    0.9810    0.2522 C   0  0  0  0  0  0  0  0  0  0  0  0
    3.7527    1.5698   -0.6618 H   0  0  0  0  0  0  0  0  0  0  0  0
    3.7632   -0.5137   -0.0278 C   0  0  0  0  0  0  0  0  0  0  0  0
    3.9017   -1.0493    0.9194 H   0  0  0  0  0  0  0  0  0  0  0  0
    2.5451   -1.0560   -0.7793 C   0  0  0  0  0  0  0  0  0  0  0  0
    2.4568   -0.5950   -1.7726 H   0  0  0  0  0  0  0  0  0  0  0  0
    2.6245   -2.5678   -0.9672 C   0  0  0  0  0  0  0  0  0  0  0  0
    2.6528   -3.0896   -0.0050 H   0  0  0  0  0  0  0  0  0  0  0  0
    3.5015   -2.8585   -1.5525 H   0  0  0  0  0  0  0  0  0  0  0  0
    2.0271    2.6980    0.8690 O   0  0  0  0  0  0  0  0  0  0  0  0
    2.0334    2.9988   -0.0557 H   0  0  0  0  0  0  0  0  0  0  0  0
    4.6430    1.3725    1.1539 O   0  0  0  0  0  0  0  0  0  0  0  0
    5.4924    1.1528    0.7341 H   0  0  0  0  0  0  0  0  0  0  0  0
    1.3535   -0.7755   -0.0428 O   0  0  0  0  0  0  0  0  0  0  0  0
    1.4650   -2.9979   -1.6567 O   0  0  0  0  0  0  0  0  0  0  0  0
    0.6919   -2.7099   -1.1431 H   0  0  0  0  0  0  0  0  0  0  0  0
    4.9338   -0.7262   -0.8125 O   0  0  0  0  0  0  0  0  0  0  0  0
   -4.0690   -0.1612    0.0983 C   0  0  0  0  0  0  0  0  0  0  0  0
   -4.4248    0.3960    0.9727 H   0  0  0  0  0  0  0  0  0  0  0  0
   -3.1623   -1.3259    0.4962 C   0  0  0  0  0  0  0  0  0  0  0  0
   -2.9790   -1.9910   -0.3570 H   0  0  0  0  0  0  0  0  0  0  0  0
   -1.8308   -0.8272    1.0581 C   0  0  0  0  0  0  0  0  0  0  0  0
   -1.9558   -0.4438    2.0775 H   0  0  0  0  0  0  0  0  0  0  0  0
   -1.2099    0.2345    0.1502 C   0  0  0  0  0  0  0  0  0  0  0  0
   -0.9039   -0.2567   -0.7858 H   0  0  0  0  0  0  0  0  0  0  0  0
   -2.2346    1.3159   -0.2004 C   0  0  0  0  0  0  0  0  0  0  0  0
   -2.5471    1.8655    0.6980 H   0  0  0  0  0  0  0  0  0  0  0  0
   -1.6733    2.3233   -1.1989 C   0  0  0  0  0  0  0  0  0  0  0  0
   -1.3930    1.8420   -2.1418 H   0  0  0  0  0  0  0  0  0  0  0  0
   -0.8031    2.8504   -0.7981 H   0  0  0  0  0  0  0  0  0  0  0  0
   -5.2227   -0.7021   -0.5444 O   0  0  0  0  0  0  0  0  0  0  0  0
   -4.9442   -1.4467   -1.1032 H   0  0  0  0  0  0  0  0  0  0  0  0
   -3.8364   -2.0982    1.4895 O   0  0  0  0  0  0  0  0  0  0  0  0
   -4.6800   -2.3938    1.1065 H   0  0  0  0  0  0  0  0  0  0  0  0
   -0.9150   -1.9196    1.1511 O   0  0  0  0  0  0  0  0  0  0  0  0
   -0.8293   -2.3165    0.2682 H   0  0  0  0  0  0  0  0  0  0  0  0
   -0.1014    0.8340    0.8158 O   0  0  0  0  0  0  0  0  0  0  0  0
   -3.3893    0.7192   -0.7935 O   0  0  0  0  0  0  0  0  0  0  0  0
   -2.6752    3.2826   -1.4833 O   0  0  0  0  0  0  0  0  0  0  0  0
   -3.4457    2.8068   -1.8379 H   0  0  0  0  0  0  0  0  0  0  0  0
  1  3  1  0  0  0  0
  3  5  1  0  0  0  0
  5  7  1  0  0  0  0
  7  9  1  0  0  0  0
  9 20  1  0  0  0  0
 20  1  1  0  0  0  0
  9 11  1  0  0  0  0
  3 14  1  0  0  0  0
  5 16  1  0  0  0  0
  7 18  1  0  0  0  0
 11 21  1  0  0  0  0
  1  2  1  0  0  0  0
  3  4  1  0  0  0  0
  5  6  1  0  0  0  0
  7  8  1  0  0  0  0
  9 10  1  0  0  0  0
 11 12  1  0  0  0  0
 11 13  1  0  0  0  0
 14 15  1  0  0  0  0
 16 17  1  0  0  0  0
 18 19  1  0  0  0  0
 21 22  1  0  0  0  0
 23 25  1  0  0  0  0
 25 27  1  0  0  0  0
 27 29  1  0  0  0  0
 29 31  1  0  0  0  0
 31 40  1  0  0  0  0
 40 23  1  0  0  0  0
 31 33  1  0  0  0  0
 25 36  1  0  0  0  0
 27 38  1  0  0  0  0
 29 43  1  0  0  0  0
 33 41  1  0  0  0  0
 23 24  1  0  0  0  0
 25 26  1  0  0  0  0
 27 28  1  0  0  0  0
 29 30  1  0  0  0  0
 31 32  1  0  0  0  0
 33 34  1  0  0  0  0
 33 35  1  0  0  0  0
 36 37  1  0  0  0  0
 38 39  1  0  0  0  0
 41 42  1  0  0  0  0
 44 46  1  0  0  0  0
 46 48  1  0  0  0  0
 48 50  1  0  0  0  0
 50 52  1  0  0  0  0
 52 61  1  0  0  0  0
 61 44  1  0  0  0  0
 52 54  1  0  0  0  0
 46 57  1  0  0  0  0
 48 59  1  0  0  0  0
 50 64  1  0  0  0  0
 54 62  1  0  0  0  0
 44 45  1  0  0  0  0
 46 47  1  0  0  0  0
 48 49  1  0  0  0  0
 50 51  1  0  0  0  0
 52 53  1  0  0  0  0
 54 55  1  0  0  0  0
 54 56  1  0  0  0  0
 57 58  1  0  0  0  0
 59 60  1  0  0  0  0
 62 63  1  0  0  0  0
 65 67  1  0  0  0  0
 67 69  1  0  0  0  0
 69 71  1  0  0  0  0
 71 73  1  0  0  0  0
 73 82  1  0  0  0  0
 82 65  1  0  0  0  0
 73 75  1  0  0  0  0
 67 78  1  0  0  0  0
 69 85  1  0  0  0  0
 71 80  1  0  0  0  0
 75 83  1  0  0  0  0
 65 66  1  0  0  0  0
 67 68  1  0  0  0  0
 69 70  1  0  0  0  0
 71 72  1  0  0  0  0
 73 74  1  0  0  0  0
 75 76  1  0  0  0  0
 75 77  1  0  0  0  0
 78 79  1  0  0  0  0
 80 81  1  0  0  0  0
 83 84  1  0  0  0  0
 86 88  1  0  0  0  0
 88 90  1  0  0  0  0
 90 92  1  0  0  0  0
 92 94  1  0  0  0  0
 94103  1  0  0  0  0
103 86  1  0  0  0  0
 94 96  1  0  0  0  0
 88 99  1  0  0  0  0
 90101  1  0  0  0  0
 92106  1  0  0  0  0
 96104  1  0  0  0  0
 86 87  1  0  0  0  0
 88 89  1  0  0  0  0
 90 91  1  0  0  0  0
 92 93  1  0  0  0  0
 94 95  1  0  0  0  0
 96 97  1  0  0  0  0
 96 98  1  0  0  0  0
 99100  1  0  0  0  0
101102  1  0  0  0  0
104105  1  0  0  0  0
107109  1  0  0  0  0
109111  1  0  0  0  0
111113  1  0  0  0  0
113115  1  0  0  0  0
115124  1  0  0  0  0
124107  1  0  0  0  0
115117  1  0  0  0  0
109120  1  0  0  0  0
111122  1  0  0  0  0
113127  1  0  0  0  0
117125  1  0  0  0  0
107108  1  0  0  0  0
109110  1  0  0  0  0
111112  1  0  0  0  0
113114  1  0  0  0  0
115116  1  0  0  0  0
117118  1  0  0  0  0
117119  1  0  0  0  0
120121  1  0  0  0  0
122123  1  0  0  0  0
125126  1  0  0  0  0
128130  1  0  0  0  0
130132  1  0  0  0  0
132134  1  0  0  0  0
134136  1  0  0  0  0
136148  1  0  0  0  0
148128  1  0  0  0  0
136138  1  0  0  0  0
128141  1  0  0  0  0
130143  1  0  0  0  0
132145  1  0  0  0  0
134147  1  0  0  0  0
138149  1  0  0  0  0
128129  1  0  0  0  0
130131  1  0  0  0  0
132133  1  0  0  0  0
134135  1  0  0  0  0
136137  1  0  0  0  0
138139  1  0  0  0  0
138140  1  0  0  0  0
141142  1  0  0  0  0
143144  1  0  0  0  0
145146  1  0  0  0  0
149150  1  0  0  0  0
  1 43  1  0  0  0  0
 23 64  1  0  0  0  0
 44 85  1  0  0  0  0
 65106  1  0  0  0  0
 86127  1  0  0  0  0
107147  1  0  0  0  0
M  END
$$$$
